# generated using pymatgen
data_KCoPH2O5
_symmetry_space_group_name_H-M   'P 1'
_cell_length_a   4.85553400
_cell_length_b   5.63794300
_cell_length_c   8.35422800
_cell_angle_alpha   90.00000000
_cell_angle_beta   90.00000000
_cell_angle_gamma   90.00000000
_symmetry_Int_Tables_number   1
_chemical_formula_structural   KCoPH2O5
_chemical_formula_sum   'K2 Co2 P2 H4 O10'
_cell_volume   228.69886223
_cell_formula_units_Z   2
loop_
 _symmetry_equiv_pos_site_id
 _symmetry_equiv_pos_as_xyz
  1  'x, y, z'
loop_
 _atom_site_type_symbol
 _atom_site_label
 _atom_site_symmetry_multiplicity
 _atom_site_fract_x
 _atom_site_fract_y
 _atom_site_fract_z
 _atom_site_occupancy
  K  K0  1  0.19615300  0.50000000  0.46605900  1
  K  K1  1  0.69615300  0.00000000  0.53394100  1
  Co  Co2  1  0.08820800  0.50000000  0.02168200  1
  Co  Co3  1  0.58820800  0.00000000  0.97831800  1
  P  P4  1  0.65674700  0.50000000  0.79177600  1
  P  P5  1  0.15674700  0.00000000  0.20822400  1
  H  H6  1  0.66564100  0.63963100  0.19647100  1
  H  H7  1  0.66564100  0.36036900  0.19647100  1
  H  H8  1  0.16564100  0.86036900  0.80352900  1
  H  H9  1  0.16564100  0.13963100  0.80352900  1
  O  O10  1  0.34460800  0.50000000  0.82208700  1
  O  O11  1  0.84460800  0.00000000  0.17791300  1
  O  O12  1  0.71401500  0.50000000  0.61229100  1
  O  O13  1  0.21401500  0.00000000  0.38770900  1
  O  O14  1  0.80161400  0.71923300  0.87684400  1
  O  O15  1  0.80161400  0.28076700  0.87684400  1
  O  O16  1  0.30161400  0.78076700  0.12315600  1
  O  O17  1  0.30161400  0.21923300  0.12315600  1
  O  O18  1  0.78381800  0.50000000  0.21500800  1
  O  O19  1  0.28381800  0.00000000  0.78499200  1
