# generated using pymatgen
data_CoAgO3
_symmetry_space_group_name_H-M   'P 1'
_cell_length_a   5.94928205
_cell_length_b   5.94928205
_cell_length_c   5.94928263
_cell_angle_alpha   49.67053972
_cell_angle_beta   49.67053972
_cell_angle_gamma   49.67054473
_symmetry_Int_Tables_number   1
_chemical_formula_structural   CoAgO3
_chemical_formula_sum   'Co2 Ag2 O6'
_cell_volume   112.53193876
_cell_formula_units_Z   2
loop_
 _symmetry_equiv_pos_site_id
 _symmetry_equiv_pos_as_xyz
  1  'x, y, z'
loop_
 _atom_site_type_symbol
 _atom_site_label
 _atom_site_symmetry_multiplicity
 _atom_site_fract_x
 _atom_site_fract_y
 _atom_site_fract_z
 _atom_site_occupancy
  Co  Co0  1  0.83697700  0.83697700  0.83697700  1
  Co  Co1  1  0.16302300  0.16302300  0.16302300  1
  Ag  Ag2  1  0.63748800  0.63748800  0.63748800  1
  Ag  Ag3  1  0.36251200  0.36251200  0.36251200  1
  O  O4  1  0.95917700  0.18235900  0.55903700  1
  O  O5  1  0.44096300  0.04082300  0.81764100  1
  O  O6  1  0.81764100  0.44096300  0.04082300  1
  O  O7  1  0.18235900  0.55903700  0.95917700  1
  O  O8  1  0.55903700  0.95917700  0.18235900  1
  O  O9  1  0.04082300  0.81764100  0.44096300  1
